5
Coordinates from ORCA-job HCOO-Ag+_wat.QMRegion E -335.985194914917
  C      -3.119232     -0.543736     -0.300619
  O      -1.899483     -0.787569     -0.271696
  O      -3.743987      0.411334     -0.795639
  H      -3.774447     -1.327779     -0.139081
  Ag     -2.201394      2.411669      2.034355
5
Coordinates from ORCA-job HCOO-Ag+_wat.QMRegion E -335.989428613026
  C      -3.114434     -0.561388     -0.333780
  O      -1.891383     -0.774835     -0.251408
  O      -3.738155      0.428444     -0.756768
  H      -3.785232     -1.324535     -0.139320
  Ag     -2.209338      2.396233      2.008595
5
Coordinates from ORCA-job HCOO-Ag+_wat.QMRegion E -335.990853998039
  C      -3.111039     -0.569397     -0.355387
  O      -1.889630     -0.767689     -0.224850
  O      -3.734389      0.448682     -0.705621
  H      -3.786963     -1.327559     -0.159182
  Ag     -2.216523      2.379881      1.972360
5
Coordinates from ORCA-job HCOO-Ag+_wat.QMRegion E -335.991439821584
  C      -3.107219     -0.572596     -0.377034
  O      -1.891017     -0.765851     -0.198983
  O      -3.731115      0.467769     -0.652918
  H      -3.784396     -1.329281     -0.179455
  Ag     -2.224796      2.363879      1.935709
5
Coordinates from ORCA-job HCOO-Ag+_wat.QMRegion E -335.991172832554
  C      -3.103127     -0.570707     -0.396096
  O      -1.895049     -0.768355     -0.173448
  O      -3.728429      0.485527     -0.598364
  H      -3.778122     -1.330289     -0.202328
  Ag     -2.233816      2.347743      1.897556
5
Coordinates from ORCA-job HCOO-Ag+_wat.QMRegion E -335.990584738319
  C      -3.098887     -0.564787     -0.410526
  O      -1.900505     -0.772661     -0.148098
  O      -3.726831      0.500914     -0.543529
  H      -3.769888     -1.330862     -0.228678
  Ag     -2.242432      2.331315      1.858150
5
Coordinates from ORCA-job HCOO-Ag+_wat.QMRegion E -335.995488454102
  C      -3.096524     -0.558329     -0.372399
  O      -1.892526     -0.779019     -0.149602
  O      -3.715070      0.513407     -0.499320
  H      -3.777158     -1.330658     -0.270839
  Ag     -2.257265      2.318517      1.819479
5
Coordinates from ORCA-job HCOO-Ag+_wat.QMRegion E -335.999079264286
  C      -3.093869     -0.552100     -0.342514
  O      -1.887931     -0.785397     -0.144078
  O      -3.704998      0.526456     -0.446345
  H      -3.779133     -1.326535     -0.314331
  Ag     -2.272613      2.301495      1.774588
5
Coordinates from ORCA-job HCOO-Ag+_wat.QMRegion E -336.000363388222
  C      -3.092748     -0.549628     -0.332165
  O      -1.886260     -0.787352     -0.142252
  O      -3.701034      0.531406     -0.427409
  H      -3.779345     -1.323417     -0.328028
  Ag     -2.279158      2.292910      1.757174
5
Coordinates from ORCA-job HCOO-Ag+_wat.QMRegion E -336.001368529277
  C      -3.091785     -0.547473     -0.324338
  O      -1.885024     -0.788921     -0.140960
  O      -3.697761      0.535434     -0.412819
  H      -3.779241     -1.320395     -0.337771
  Ag     -2.284732      2.285274      1.743208
5
Coordinates from ORCA-job HCOO-Ag+_wat.QMRegion E -336.002262188881
  C      -3.090844     -0.545460     -0.317731
  O      -1.883923     -0.790266     -0.139965
  O      -3.694691      0.539103     -0.400235
  H      -3.779077     -1.317307     -0.345475
  Ag     -2.290008      2.277850      1.730726
5
Coordinates from ORCA-job HCOO-Ag+_wat.QMRegion E -336.003048126315
  C      -3.089926     -0.543604     -0.312226
  O      -1.882920     -0.791405     -0.139244
  O      -3.691814      0.542433     -0.389490
  H      -3.778929     -1.314268     -0.351407
  Ag     -2.294955      2.270763      1.719686
5
Coordinates from ORCA-job HCOO-Ag+_wat.QMRegion E -336.003723955140
  C      -3.089060     -0.541941     -0.307811
  O      -1.882033     -0.792349     -0.138776
  O      -3.689202      0.545369     -0.380634
  H      -3.778817     -1.311437     -0.355719
  Ag     -2.299432      2.264275      1.710259
5
Coordinates from ORCA-job HCOO-Ag+_wat.QMRegion E -336.004322097791
  C      -3.088233     -0.540421     -0.304187
  O      -1.881227     -0.793159     -0.138501
  O      -3.686780      0.548019     -0.373160
  H      -3.778747     -1.308784     -0.358867
  Ag     -2.303557      2.258264      1.702034
5
Coordinates from ORCA-job HCOO-Ag+_wat.QMRegion E -336.004864116888
  C      -3.087431     -0.539004     -0.301138
  O      -1.880477     -0.793877     -0.138373
  O      -3.684490      0.550464     -0.366693
  H      -3.778718     -1.306273     -0.361168
  Ag     -2.307428      2.252609      1.694692
5
Coordinates from ORCA-job HCOO-Ag+_wat.QMRegion E -336.005341596410
  C      -3.086676     -0.537715     -0.298632
  O      -1.879794     -0.794503     -0.138364
  O      -3.682377      0.552671     -0.361216
  H      -3.778725     -1.303965     -0.362751
  Ag     -2.310972      2.247431      1.688282
5
Coordinates from ORCA-job HCOO-Ag+_wat.QMRegion E -336.005755854262
  C      -3.085984     -0.536577     -0.296619
  O      -1.879180     -0.795032     -0.138441
  O      -3.680473      0.554616     -0.356676
  H      -3.778771     -1.301903     -0.363753
  Ag     -2.314136      2.242814      1.682809
5
Coordinates from ORCA-job HCOO-Ag+_wat.QMRegion E -336.006134343713
  C      -3.085319     -0.535502     -0.294888
  O      -1.878607     -0.795526     -0.138587
  O      -3.678664      0.556436     -0.352661
  H      -3.778831     -1.299960     -0.364386
  Ag     -2.317122      2.238471      1.677841
5
Coordinates from ORCA-job HCOO-Ag+_wat.QMRegion E -336.006471996381
  C      -3.084697     -0.534517     -0.293433
  O      -1.878082     -0.795966     -0.138777
  O      -3.676992      0.558096     -0.349192
  H      -3.778907     -1.298177     -0.364712
  Ag     -2.319867      2.234483      1.673433
5
Coordinates from ORCA-job HCOO-Ag+_wat.QMRegion E -336.006758887020
  C      -3.084152     -0.533666     -0.292282
  O      -1.877628     -0.796331     -0.138980
  O      -3.675542      0.559520     -0.346371
  H      -3.778986     -1.296642     -0.364794
  Ag     -2.322236      2.231038      1.669748
5
Coordinates from ORCA-job HCOO-Ag+_wat.QMRegion E -336.007026596266
  C      -3.083632     -0.532865     -0.291275
  O      -1.877200     -0.796667     -0.139206
  O      -3.674167      0.560857     -0.343841
  H      -3.779074     -1.295197     -0.364724
  Ag     -2.324471      2.227792      1.666365
5
Coordinates from ORCA-job HCOO-Ag+_wat.QMRegion E -336.007275050329
  C      -3.083136     -0.532111     -0.290391
  O      -1.876796     -0.796981     -0.139454
  O      -3.672860      0.562113     -0.341571
  H      -3.779169     -1.293837     -0.364523
  Ag     -2.326583      2.224735      1.663259
5
Coordinates from ORCA-job HCOO-Ag+_wat.QMRegion E -336.007463284918
  C      -3.082750     -0.531494     -0.289738
  O      -1.876478     -0.797141     -0.139625
  O      -3.671876      0.563096     -0.339971
  H      -3.779230     -1.292777     -0.364218
  Ag     -2.328210      2.222234      1.660870
5
Coordinates from ORCA-job HCOO-Ag+_wat.QMRegion E -336.007615741331
  C      -3.082435     -0.531003     -0.289240
  O      -1.876225     -0.797286     -0.139756
  O      -3.671077      0.563885     -0.338640
  H      -3.779281     -1.291924     -0.363987
  Ag     -2.329526      2.220246      1.658943
5
Coordinates from ORCA-job HCOO-Ag+_wat.QMRegion E -336.007788130230
  C      -3.082076     -0.530456     -0.288709
  O      -1.875939     -0.797467     -0.139939
  O      -3.670162      0.564772     -0.337189
  H      -3.779351     -1.290964     -0.363668
  Ag     -2.331016      2.218034      1.656824
5
Coordinates from ORCA-job HCOO-Ag+_wat.QMRegion E -336.007945575842
  C      -3.081744     -0.529946     -0.288239
  O      -1.875675     -0.797619     -0.140109
  O      -3.669320      0.565592     -0.335898
  H      -3.779415     -1.290077     -0.363322
  Ag     -2.332390      2.215970      1.654886
5
Coordinates from ORCA-job HCOO-Ag+_wat.QMRegion E -336.008076155940
  C      -3.081471     -0.529504     -0.287854
  O      -1.875456     -0.797690     -0.140209
  O      -3.668653      0.566272     -0.334872
  H      -3.779453     -1.289344     -0.363006
  Ag     -2.333511      2.214184      1.653260
5
Coordinates from ORCA-job HCOO-Ag+_wat.QMRegion E -336.008194692551
  C      -3.081215     -0.529106     -0.287520
  O      -1.875254     -0.797784     -0.140335
  O      -3.668016      0.566900     -0.333939
  H      -3.779499     -1.288667     -0.362683
  Ag     -2.334560      2.212576      1.651797
5
Coordinates from ORCA-job HCOO-Ag+_wat.QMRegion E -336.008296533728
  C      -3.081007     -0.528748     -0.287233
  O      -1.875086     -0.797786     -0.140374
  O      -3.667531      0.567426     -0.333191
  H      -3.779513     -1.288103     -0.362410
  Ag     -2.335407      2.211130      1.650527
5
Coordinates from ORCA-job HCOO-Ag+_wat.QMRegion E -336.008404488418
  C      -3.080766     -0.528382     -0.286946
  O      -1.874897     -0.797884     -0.140516
  O      -3.666928      0.568007     -0.332364
  H      -3.779564     -1.287474     -0.362061
  Ag     -2.336389      2.209652      1.649207
5
Coordinates from ORCA-job HCOO-Ag+_wat.QMRegion E -336.008483351291
  C      -3.080653     -0.528048     -0.286697
  O      -1.874794     -0.797603     -0.140289
  O      -3.666785      0.568365     -0.331961
  H      -3.779476     -1.287109     -0.361901
  Ag     -2.336836      2.208314      1.648167
5
Coordinates from ORCA-job HCOO-Ag+_wat.QMRegion E -336.008667151074
  C      -3.080296     -0.527372     -0.286196
  O      -1.874503     -0.797496     -0.140288
  O      -3.665989      0.569301     -0.330771
  H      -3.779471     -1.286115     -0.361327
  Ag     -2.338285      2.205601      1.645900
5
Coordinates from ORCA-job HCOO-Ag+_wat.QMRegion E -336.008749273387
  C      -3.080182     -0.527010     -0.285940
  O      -1.874396     -0.797160     -0.140025
  O      -3.665864      0.569675     -0.330402
  H      -3.779369     -1.285737     -0.361126
  Ag     -2.338731      2.204151      1.644813
5
Coordinates from ORCA-job HCOO-Ag+_wat.QMRegion E -336.008888383227
  C      -3.079937     -0.526462     -0.285556
  O      -1.874191     -0.796913     -0.139872
  O      -3.665395      0.570359     -0.329603
  H      -3.779308     -1.285022     -0.360708
  Ag     -2.339713      2.201957      1.643058
5
Coordinates from ORCA-job HCOO-Ag+_wat.QMRegion E -336.008980775557
  C      -3.079802     -0.526063     -0.285280
  O      -1.874068     -0.796580     -0.139613
  O      -3.665220      0.570786     -0.329160
  H      -3.779209     -1.284587     -0.360473
  Ag     -2.340245      2.200363      1.641846
5
Coordinates from ORCA-job HCOO-Ag+_wat.QMRegion E -336.009120902902
  C      -3.079572     -0.525483     -0.284884
  O      -1.873868     -0.796212     -0.139372
  O      -3.664832      0.571461     -0.328469
  H      -3.779112     -1.283890     -0.360025
  Ag     -2.341159      2.198043      1.640070
5
Coordinates from ORCA-job HCOO-Ag+_wat.QMRegion E -336.009188940047
  C      -3.079486     -0.525187     -0.284683
  O      -1.873786     -0.795912     -0.139126
  O      -3.664760      0.571755     -0.328180
  H      -3.779017     -1.283595     -0.359878
  Ag     -2.341494      2.196858      1.639186
5
Coordinates from ORCA-job HCOO-Ag+_wat.QMRegion E -336.009387488289
  C      -3.079207     -0.524342     -0.284109
  O      -1.873535     -0.795200     -0.138572
  O      -3.664404      0.572652     -0.327278
  H      -3.778806     -1.282682     -0.359365
  Ag     -2.342592      2.193491      1.636643
5
Coordinates from ORCA-job HCOO-Ag+_wat.QMRegion E -336.009533012557
  C      -3.079003     -0.523712     -0.283686
  O      -1.873348     -0.794648     -0.138146
  O      -3.664157      0.573314     -0.326637
  H      -3.778643     -1.282011     -0.358974
  Ag     -2.343393      2.190977      1.634762
5
Coordinates from ORCA-job HCOO-Ag+_wat.QMRegion E -336.009674802836
  C      -3.078803     -0.523103     -0.283280
  O      -1.873165     -0.794122     -0.137754
  O      -3.663905      0.573958     -0.326038
  H      -3.778491     -1.281358     -0.358566
  Ag     -2.344180      2.188545      1.632957
5
Coordinates from ORCA-job HCOO-Ag+_wat.QMRegion E -336.009786098500
  C      -3.078650     -0.522628     -0.282964
  O      -1.873024     -0.793696     -0.137432
  O      -3.663725      0.574454     -0.325579
  H      -3.778366     -1.280856     -0.358258
  Ag     -2.344778      2.186645      1.631551
5
Coordinates from ORCA-job HCOO-Ag+_wat.QMRegion E -336.009911881353
  C      -3.078471     -0.522085     -0.282606
  O      -1.872860     -0.793227     -0.137088
  O      -3.663500      0.575027     -0.325060
  H      -3.778231     -1.280275     -0.357881
  Ag     -2.345481      2.184479      1.629954
5
Coordinates from ORCA-job HCOO-Ag+_wat.QMRegion E -336.010002975893
  C      -3.078336     -0.521688     -0.282349
  O      -1.872737     -0.792892     -0.136855
  O      -3.663323      0.575451     -0.324696
  H      -3.778138     -1.279844     -0.357577
  Ag     -2.346011      2.182892      1.628796
5
Coordinates from ORCA-job HCOO-Ag+_wat.QMRegion E -336.010049866712
  C      -3.078275     -0.521478     -0.282216
  O      -1.872677     -0.792674     -0.136689
  O      -3.663272      0.575657     -0.324527
  H      -3.778071     -1.279638     -0.357442
  Ag     -2.346248      2.182052      1.628193
5
Coordinates from ORCA-job HCOO-Ag+_wat.QMRegion E -336.010173265591
  C      -3.078105     -0.520939     -0.281867
  O      -1.872522     -0.792181     -0.136313
  O      -3.663082      0.576212     -0.324025
  H      -3.777926     -1.279078     -0.357088
  Ag     -2.346909      2.179904      1.626613
5
Coordinates from ORCA-job HCOO-Ag+_wat.QMRegion E -336.010296735295
  C      -3.077934     -0.520410     -0.281524
  O      -1.872359     -0.791686     -0.135946
  O      -3.662885      0.576765     -0.323533
  H      -3.777794     -1.278517     -0.356724
  Ag     -2.347572      2.177766      1.625047
5
Coordinates from ORCA-job HCOO-Ag+_wat.QMRegion E -336.010413749078
  C      -3.077775     -0.519891     -0.281192
  O      -1.872215     -0.791218     -0.135598
  O      -3.662709      0.577294     -0.323092
  H      -3.777647     -1.277987     -0.356363
  Ag     -2.348198      2.175721      1.623564
5
Coordinates from ORCA-job HCOO-Ag+_wat.QMRegion E -336.010497399036
  C      -3.077660     -0.519522     -0.280958
  O      -1.872107     -0.790873     -0.135351
  O      -3.662581      0.577671     -0.322791
  H      -3.777548     -1.277607     -0.356090
  Ag     -2.348648      2.174251      1.622509
5
Coordinates from ORCA-job HCOO-Ag+_wat.QMRegion E -336.010551400191
  C      -3.077570     -0.519303     -0.280823
  O      -1.872022     -0.790706     -0.135253
  O      -3.662439      0.577926     -0.322565
  H      -3.777517     -1.277343     -0.355884
  Ag     -2.348996      2.173345      1.621846
5
Coordinates from ORCA-job HCOO-Ag+_wat.QMRegion E -336.010566609711
  C      -3.077625     -0.519092     -0.280727
  O      -1.872036     -0.790104     -0.134780
  O      -3.662809      0.577949     -0.322935
  H      -3.777320     -1.277365     -0.355773
  Ag     -2.348753      2.172532      1.621534
5
Coordinates from ORCA-job HCOO-Ag+_wat.QMRegion E -336.014252823007
  C      -3.069324     -0.513738     -0.287054
  O      -1.870385     -0.808370     -0.132693
  O      -3.643198      0.589695     -0.261555
  H      -3.779457     -1.261211     -0.371464
  Ag     -2.376180      2.157544      1.580086
5
Coordinates from ORCA-job HCOO-Ag+_wat.QMRegion E -336.018118678743
  C      -3.060298     -0.507826     -0.287795
  O      -1.868110     -0.831239     -0.138944
  O      -3.616666      0.601486     -0.201855
  H      -3.783522     -1.241269     -0.383335
  Ag     -2.409949      2.142767      1.539249
5
Coordinates from ORCA-job HCOO-Ag+_wat.QMRegion E -336.018445008286
  C      -3.054403     -0.505772     -0.309503
  O      -1.874226     -0.859001     -0.134855
  O      -3.605001      0.596493     -0.138048
  H      -3.782088     -1.234115     -0.410105
  Ag     -2.422826      2.166314      1.519830
5
Coordinates from ORCA-job HCOO-Ag+_wat.QMRegion E -336.022367808815
  C      -3.045019     -0.498844     -0.303197
  O      -1.872023     -0.883739     -0.148278
  O      -3.571347      0.607044     -0.085266
  H      -3.788168     -1.209461     -0.416657
  Ag     -2.461986      2.148918      1.480717
5
Coordinates from ORCA-job HCOO-Ag+_wat.QMRegion E -336.024700663166
  C      -3.037665     -0.484887     -0.304808
  O      -1.870572     -0.888582     -0.153139
  O      -3.549167      0.624528     -0.070098
  H      -3.788903     -1.190446     -0.393987
  Ag     -2.492236      2.103306      1.449351
5
Coordinates from ORCA-job HCOO-Ag+_wat.QMRegion E -336.028587303303
  C      -3.034856     -0.475034     -0.287258
  O      -1.866601     -0.878881     -0.145250
  O      -3.545292      0.633011     -0.043918
  H      -3.787764     -1.174758     -0.404046
  Ag     -2.504031      2.059581      1.407791
5
Coordinates from ORCA-job HCOO-Ag+_wat.QMRegion E -336.030284660633
  C      -3.027196     -0.464194     -0.282140
  O      -1.865722     -0.890040     -0.149111
  O      -3.522342      0.642435     -0.003379
  H      -3.789051     -1.152984     -0.405698
  Ag     -2.534233      2.028703      1.367647
5
Coordinates from ORCA-job HCOO-Ag+_wat.QMRegion E -336.031362628137
  C      -3.020689     -0.461322     -0.266082
  O      -1.863627     -0.905488     -0.156469
  O      -3.499290      0.642298      0.050951
  H      -3.793305     -1.129809     -0.428314
  Ag     -2.561632      2.018239      1.327233
5
Coordinates from ORCA-job HCOO-Ag+_wat.QMRegion E -336.028642044739
  C      -3.011448     -0.456043     -0.255766
  O      -1.863099     -0.927029     -0.168908
  O      -3.465606      0.645443      0.101991
  H      -3.798501     -1.102161     -0.437984
  Ag     -2.599890      2.003709      1.287986
5
Coordinates from ORCA-job HCOO-Ag+_wat.QMRegion E -336.025035671944
  C      -3.006096     -0.457635     -0.237289
  O      -1.861632     -0.942119     -0.177670
  O      -3.444574      0.638098      0.155941
  H      -3.802455     -1.077419     -0.464894
  Ag     -2.623786      2.002993      1.251232
5
Coordinates from ORCA-job HCOO-Ag+_wat.QMRegion E -336.025951048707
  C      -3.008280     -0.466569     -0.217154
  O      -1.859802     -0.943533     -0.177398
  O      -3.450629      0.618985      0.199286
  H      -3.801012     -1.065340     -0.505550
  Ag     -2.618820      2.020376      1.228136
5
Coordinates from ORCA-job HCOO-Ag+_wat.QMRegion E -336.027595618766
  C      -3.014373     -0.472443     -0.197780
  O      -1.857941     -0.930513     -0.167582
  O      -3.474109      0.598797      0.236513
  H      -3.793413     -1.056987     -0.546390
  Ag     -2.598708      2.025065      1.202557
5
Coordinates from ORCA-job HCOO-Ag+_wat.QMRegion E -336.028442665974
  C      -3.013014     -0.487607     -0.184746
  O      -1.859342     -0.953547     -0.179242
  O      -3.459189      0.579051      0.274289
  H      -3.795367     -1.039437     -0.576582
  Ag     -2.611631      2.065459      1.193600
5
Coordinates from ORCA-job HCOO-Ag+_wat.QMRegion E -336.028234924146
  C      -3.022012     -0.483334     -0.166964
  O      -1.855843     -0.917051     -0.161504
  O      -3.496907      0.572400      0.288497
  H      -3.782421     -1.036815     -0.597737
  Ag     -2.581361      2.028719      1.165027
5
Coordinates from ORCA-job HCOO-Ag+_wat.QMRegion E -336.028428905447
  C      -3.020518     -0.485217     -0.169262
  O      -1.856258     -0.924057     -0.166378
  O      -3.488590      0.575652      0.281303
  H      -3.785572     -1.038684     -0.591749
  Ag     -2.587606      2.036225      1.173405
5
Coordinates from ORCA-job HCOO-Ag+_wat.QMRegion E -336.028439308176
  C      -3.020641     -0.484059     -0.170331
  O      -1.856079     -0.922066     -0.165770
  O      -3.489676      0.577705      0.277093
  H      -3.785638     -1.040743     -0.588670
  Ag     -2.586509      2.033081      1.174998
5
Coordinates from ORCA-job HCOO-Ag+_wat.QMRegion E -336.028455364763
  C      -3.020731     -0.483922     -0.170343
  O      -1.856065     -0.921648     -0.165449
  O      -3.490238      0.577501      0.277395
  H      -3.785463     -1.040772     -0.588946
  Ag     -2.586047      2.032760      1.174663
5
Coordinates from ORCA-job HCOO-Ag+_wat.QMRegion E -336.028492597712
  C      -3.020937     -0.483781     -0.170181
  O      -1.856022     -0.920842     -0.164954
  O      -3.491240      0.577210      0.277745
  H      -3.785150     -1.040851     -0.589439
  Ag     -2.585195      2.032184      1.174147
5
Coordinates from ORCA-job HCOO-Ag+_wat.QMRegion E -336.028497128816
  C      -3.020935     -0.483751     -0.170238
  O      -1.856017     -0.920806     -0.164961
  O      -3.491236      0.577309      0.277527
  H      -3.785172     -1.040950     -0.589279
  Ag     -2.585185      2.032116      1.174271
