5
Coordinates from ORCA-job COO-Ag+ E -336.008499611546
  C      -3.076980     -0.134030     -0.005660
  O      -1.858750     -0.186810     -0.023350
  O      -3.700200      1.058180     -0.042050
  H      -3.658430     -1.048240      0.039410
  Ag     -2.651970      2.719460     -0.123830
5
Coordinates from ORCA-job COO-Ag+ E -336.015631594063
  C      -3.060025     -0.107703     -0.006803
  O      -1.846192     -0.190721     -0.023446
  O      -3.715099      1.025062     -0.040545
  H      -3.671612     -1.017552      0.038354
  Ag     -2.653403      2.699475     -0.123040
5
Coordinates from ORCA-job COO-Ag+ E -336.019507033512
  C      -3.048654     -0.075050     -0.009352
  O      -1.835611     -0.162206     -0.024637
  O      -3.754407      0.977897     -0.038483
  H      -3.678460     -0.987064      0.038214
  Ag     -2.629198      2.654983     -0.121222
5
Coordinates from ORCA-job COO-Ag+ E -336.021015775759
  C      -3.053639     -0.065829     -0.004686
  O      -1.837375     -0.126746     -0.027040
  O      -3.789011      0.968151     -0.037412
  H      -3.668808     -0.992990      0.035339
  Ag     -2.597498      2.625973     -0.121681
5
Coordinates from ORCA-job COO-Ag+ E -336.025250125851
  C      -3.089544     -0.030116     -0.034183
  O      -1.867691      0.052416     -0.027240
  O      -3.928242      0.935551     -0.033218
  H      -3.606446     -1.017726      0.051503
  Ag     -2.454407      2.468436     -0.112342
5
Coordinates from ORCA-job COO-Ag+ E -336.020472156518
  C      -3.129611      0.002562      0.037685
  O      -1.917508      0.213777     -0.052395
  O      -4.027749      0.909511     -0.047130
  H      -3.535293     -1.028710      0.019980
  Ag     -2.336168      2.311420     -0.113621
5
Coordinates from ORCA-job COO-Ag+ E -336.026189198630
  C      -3.110096     -0.035582      0.021294
  O      -1.883012      0.064630     -0.041496
  O      -3.938144      0.935689     -0.044517
  H      -3.585914     -1.030796      0.027393
  Ag     -2.429164      2.474619     -0.118155
5
Coordinates from ORCA-job COO-Ag+ E -336.026030843145
  C      -3.117273     -0.023727     -0.053700
  O      -1.886514      0.093065     -0.019571
  O      -3.957759      0.918835     -0.023603
  H      -3.577704     -1.026452      0.055921
  Ag     -2.407080      2.446839     -0.114527
5
Coordinates from ORCA-job COO-Ag+ E -336.027596010906
  C      -3.125091     -0.025813     -0.015006
  O      -1.892518      0.098792     -0.032154
  O      -3.963397      0.922748     -0.035303
  H      -3.568299     -1.035846      0.042311
  Ag     -2.397026      2.448680     -0.115328
5
Coordinates from ORCA-job COO-Ag+ E -336.027966796396
  C      -3.136199     -0.022289     -0.007440
  O      -1.901751      0.119244     -0.034892
  O      -3.978332      0.916971     -0.036862
  H      -3.554473     -1.041820      0.039281
  Ag     -2.375575      2.436455     -0.115566
5
Coordinates from ORCA-job COO-Ag+ E -336.028268333039
  C      -3.155072     -0.014864     -0.004732
  O      -1.916608      0.153568     -0.034273
  O      -4.007034      0.905322     -0.033977
  H      -3.530033     -1.050428      0.035313
  Ag     -2.337583      2.414962     -0.117811
5
Coordinates from ORCA-job COO-Ag+ E -336.028352493891
  C      -3.158761     -0.013927     -0.006558
  O      -1.918696      0.155647     -0.032551
  O      -4.012796      0.901986     -0.031918
  H      -3.526045     -1.052847      0.034680
  Ag     -2.330032      2.417701     -0.119133
5
Coordinates from ORCA-job COO-Ag+ E -336.028414110525
  C      -3.162087     -0.013479     -0.009653
  O      -1.921123      0.157151     -0.033311
  O      -4.020235      0.896783     -0.032346
  H      -3.522512     -1.055848      0.037743
  Ag     -2.320373      2.423952     -0.117912
5
Coordinates from ORCA-job COO-Ag+ E -336.028424900806
  C      -3.162640     -0.013468     -0.009762
  O      -1.922232      0.159566     -0.033647
  O      -4.023347      0.894311     -0.032461
  H      -3.521751     -1.056522      0.038119
  Ag     -2.316359      2.424674     -0.117730
5
Coordinates from ORCA-job COO-Ag+ E -336.028430867161
  C      -3.162208     -0.013827     -0.009218
  O      -1.922757      0.161866     -0.033705
  O      -4.025347      0.892090     -0.032318
  H      -3.522299     -1.056604      0.037728
  Ag     -2.313720      2.425035     -0.117966
5
Coordinates from ORCA-job COO-Ag+ E -336.028431389268
  C      -3.161788     -0.014039     -0.009002
  O      -1.922544      0.162142     -0.033705
  O      -4.025166      0.891872     -0.032299
  H      -3.522925     -1.056387      0.037563
  Ag     -2.313907      2.424972     -0.118038
5
Coordinates from ORCA-job COO-Ag+ E -336.028431433262
  C      -3.161624     -0.014127     -0.008963
  O      -1.922380      0.162108     -0.033687
  O      -4.024920      0.891922     -0.032285
  H      -3.523211     -1.056281      0.037516
  Ag     -2.314195      2.424939     -0.118061
