5
Coordinates from ORCA-job HCOO-Ag+.QMRegion E -336.017891182286
  O      -2.904423      0.049795      0.000000
  O      -1.613990      1.862778      0.000000
  C      -2.727209      1.289396      0.000000
  H      -3.635260      1.936054     -0.000000
  Ag     -0.073410      0.548330      0.000000
5
Coordinates from ORCA-job HCOO-Ag+.QMRegion E -335.992082661403
  O      -2.833311      0.156711      0.000000
  O      -1.653049      1.828186      0.000000
  C      -2.747043      1.288774     -0.000000
  H      -3.604495      1.883009     -0.000000
  Ag     -0.116394      0.529674     -0.000000
5
Coordinates from ORCA-job HCOO-Ag+.QMRegion E -335.900007991792
  O      -2.831041      0.246320     -0.000000
  O      -1.653882      1.819084     -0.000000
  C      -2.776380      1.280144      0.000000
  H      -3.543392      1.806960      0.000000
  Ag     -0.149597      0.533846      0.000000
5
Coordinates from ORCA-job HCOO-Ag+.QMRegion E -335.758738827317
  O      -2.899588      0.296097      0.000000
  O      -1.633377      1.797652      0.000000
  C      -2.807998      1.266598     -0.000000
  H      -3.464515      1.751406     -0.000000
  Ag     -0.148813      0.574600     -0.000000
5
Coordinates from ORCA-job HCOO-Ag+.QMRegion E -335.565254728355
  O      -2.990353      0.342475     -0.000000
  O      -1.604865      1.742821     -0.000000
  C      -2.833180      1.240209      0.000000
  H      -3.413458      1.727637     -0.000000
  Ag     -0.112436      0.633211      0.000000
5
Coordinates from ORCA-job HCOO-Ag+.QMRegion E -335.451490203212
  O      -3.094432      0.358682     -0.000000
  O      -1.573748      1.680847     -0.000000
  C      -2.857434      1.222530      0.000000
  H      -3.361539      1.723718      0.000000
  Ag     -0.067139      0.700577      0.000000
5
Coordinates from ORCA-job HCOO-Ag+.QMRegion E -335.383648235908
  O      -3.194382      0.382240      0.000000
  O      -1.550874      1.611664     -0.000000
  C      -2.870105      1.187820     -0.000000
  H      -3.340377      1.741363      0.000000
  Ag      0.001446      0.763265      0.000000
5
Coordinates from ORCA-job HCOO-Ag+.QMRegion E -335.586870239596
  O      -3.304573      0.353126     -0.000000
  O      -1.540933      1.543436     -0.000000
  C      -2.871937      1.171033      0.000000
  H      -3.306405      1.790526      0.000000
  Ag      0.069555      0.828232      0.000000
5
Coordinates from ORCA-job HCOO-Ag+.QMRegion E -335.510819903125
  O      -3.364318      0.387424     -0.000000
  O      -1.575144      1.452478     -0.000000
  C      -2.889308      1.159651      0.000000
  H      -3.253519      1.795084     -0.000000
  Ag      0.127997      0.891717     -0.000000
5
Coordinates from ORCA-job HCOO-Ag+.QMRegion E -335.511652077038
  O      -3.412065      0.414816     -0.000000
  O      -1.613248      1.335170     -0.000000
  C      -2.882253      1.148645      0.000000
  H      -3.200691      1.820225     -0.000000
  Ag      0.153965      0.967498     -0.000000
5
Coordinates from ORCA-job HCOO-Ag+.QMRegion E -335.544950279941
  O      -3.454565      0.435900     -0.000000
  O      -1.659091      1.228493      0.000000
  C      -2.862157      1.138165      0.000000
  H      -3.138528      1.844630     -0.000000
  Ag      0.160049      1.039165     -0.000000
5
Coordinates from ORCA-job HCOO-Ag+.QMRegion E -335.565263131576
  O      -3.497309      0.461166     -0.000004
  O      -1.701027      1.123591      0.000000
  C      -2.841952      1.126609     -0.000000
  H      -3.075003      1.863852      0.000004
  Ag      0.160999      1.111136     -0.000000
5
Coordinates from ORCA-job HCOO-Ag+.QMRegion E -335.577914295583
  O      -3.549315      0.494104     -0.000004
  O      -1.756441      0.994216      0.000001
  C      -2.815455      1.112313      0.000000
  H      -2.993760      1.885068      0.000004
  Ag      0.160679      1.200652     -0.000000
5
Coordinates from ORCA-job HCOO-Ag+.QMRegion E -335.598816533822
  O      -3.629735      0.512845     -0.000005
  O      -1.779273      0.963671     -0.000001
  C      -2.821899      1.057247      0.000002
  H      -2.863777      1.885655      0.000003
  Ag      0.140392      1.266936      0.000000
5
Coordinates from ORCA-job HCOO-Ag+.QMRegion E -335.701026028967
  O      -3.642820      0.475830      0.000031
  O      -1.726330      1.041761     -0.000009
  C      -2.824537      1.043458     -0.000058
  H      -2.894889      1.904088      0.000022
  Ag      0.134283      1.221217      0.000013
5
Coordinates from ORCA-job HCOO-Ag+.QMRegion E -335.648707377896
  O      -3.555795      0.464357     -0.001558
  O      -1.710915      1.061701      0.000945
  C      -2.830953      1.069361      0.002272
  H      -2.995693      1.925518     -0.000858
  Ag      0.139063      1.165415     -0.000801
5
Coordinates from ORCA-job HCOO-Ag+.QMRegion E -335.659209266487
  O      -3.561750      0.473043      0.024254
  O      -1.709324      1.053037     -0.016575
  C      -2.823488      1.075850     -0.036383
  H      -3.005903      1.915671      0.015671
  Ag      0.146173      1.168751      0.013033
5
Coordinates from ORCA-job HCOO-Ag+.QMRegion E -335.680498035985
  O      -3.581181      0.491338      0.003311
  O      -1.706578      1.031038     -0.003080
  C      -2.801323      1.092975     -0.003906
  H      -3.030764      1.893322      0.002229
  Ag      0.165554      1.177679      0.001446
5
Coordinates from ORCA-job HCOO-Ag+.QMRegion E -335.651243287834
  O      -3.568437      0.481821     -0.003116
  O      -1.733959      0.997006      0.002891
  C      -2.813302      1.076880      0.004261
  H      -2.971587      1.927265     -0.001396
  Ag      0.132993      1.203381     -0.002640
5
Coordinates from ORCA-job HCOO-Ag+.QMRegion E -335.629610418840
  O      -3.590288      0.491193      0.003754
  O      -1.733785      1.014814     -0.015908
  C      -2.826855      1.055516      0.005807
  H      -2.938401      1.912299      0.000263
  Ag      0.135037      1.212530      0.006083
5
Coordinates from ORCA-job HCOO-Ag+.QMRegion E -335.629520891609
  O      -3.594668      0.491610     -0.003855
  O      -1.732082      1.020554      0.013096
  C      -2.829124      1.051193     -0.001415
  H      -2.934077      1.910451     -0.001172
  Ag      0.135659      1.212545     -0.006654
5
Coordinates from ORCA-job HCOO-Ag+.QMRegion E -335.668635261877
  O      -3.581694      0.475713      0.001010
  O      -1.722892      1.020916     -0.000537
  C      -2.819468      1.060750     -0.000671
  H      -2.962788      1.930975      0.000456
  Ag      0.132550      1.197999     -0.000258
5
Coordinates from ORCA-job HCOO-Ag+.QMRegion E -335.660031645495
  O      -3.571405      0.484359      0.001166
  O      -1.725307      1.003444     -0.002493
  C      -2.810769      1.072903      0.000464
  H      -2.984589      1.927294      0.000361
  Ag      0.137778      1.198353      0.000503
5
Coordinates from ORCA-job HCOO-Ag+.QMRegion E -335.656147894581
  O      -3.579602      0.485034      0.000604
  O      -1.727211      1.006921     -0.000991
  C      -2.815638      1.064740      0.000404
  H      -2.967467      1.925941      0.000189
  Ag      0.135626      1.203718     -0.000206
5
Coordinates from ORCA-job HCOO-Ag+.QMRegion E -335.657744828661
  O      -3.581134      0.482654      0.000071
  O      -1.726839      1.008771      0.000398
  C      -2.817682      1.060480      0.000372
  H      -2.960872      1.929773      0.000024
  Ag      0.132235      1.204675     -0.000865
5
Coordinates from ORCA-job HCOO-Ag+.QMRegion E -335.657597244236
  O      -3.581617      0.484165      0.000247
  O      -1.727019      1.006691     -0.000135
  C      -2.816600      1.060911      0.000442
  H      -2.961986      1.928986      0.000067
  Ag      0.132931      1.205601     -0.000621
5
Coordinates from ORCA-job HCOO-Ag+.QMRegion E -335.657615428550
  O      -3.582229      0.485236      0.000339
  O      -1.727173      1.004621     -0.000431
  C      -2.815839      1.060412      0.000492
  H      -2.961800      1.929259      0.000087
  Ag      0.132749      1.206825     -0.000486
5
Coordinates from ORCA-job HCOO-Ag+.QMRegion E -335.657600736706
  O      -3.584859      0.489430      0.000642
  O      -1.727844      0.996220     -0.001409
  C      -2.812855      1.057714      0.000659
  H      -2.960039      1.930917      0.000151
  Ag      0.131305      1.212071     -0.000042
5
Coordinates from ORCA-job HCOO-Ag+.QMRegion E -335.657270222333
  O      -3.587538      0.493578      0.000917
  O      -1.728599      0.987810     -0.002283
  C      -2.809931      1.054479      0.000797
  H      -2.957494      1.932944      0.000213
  Ag      0.129270      1.217541      0.000356
5
Coordinates from ORCA-job HCOO-Ag+.QMRegion E -335.656437092702
  O      -3.590654      0.498418      0.001232
  O      -1.729585      0.977944     -0.003239
  C      -2.806511      1.050153      0.000922
  H      -2.953788      1.935692      0.000290
  Ag      0.126246      1.224146      0.000795
5
Coordinates from ORCA-job HCOO-Ag+.QMRegion E -335.654990828712
  O      -3.593981      0.503658      0.001546
  O      -1.730812      0.967118     -0.004167
  C      -2.802732      1.044810      0.001021
  H      -2.948980      1.939201      0.000375
  Ag      0.122213      1.231567      0.001224
5
Coordinates from ORCA-job HCOO-Ag+.QMRegion E -335.652781565812
  O      -3.597322      0.509058      0.001803
  O      -1.732324      0.955572     -0.004945
  C      -2.798661      1.038405      0.001103
  H      -2.943068      1.943694      0.000456
  Ag      0.117083      1.239623      0.001583
5
Coordinates from ORCA-job HCOO-Ag+.QMRegion E -335.649586521794
  O      -3.600578      0.514454      0.001895
  O      -1.734264      0.943187     -0.005382
  C      -2.794220      1.030652      0.001200
  H      -2.935832      1.949688      0.000515
  Ag      0.110603      1.248372      0.001772
5
Coordinates from ORCA-job HCOO-Ag+.QMRegion E -335.644923424680
  O      -3.603474      0.519481      0.001610
  O      -1.736861      0.929842     -0.005119
  C      -2.789332      1.021164      0.001390
  H      -2.927014      1.958053      0.000520
  Ag      0.102389      1.257812      0.001599
5
Coordinates from ORCA-job HCOO-Ag+.QMRegion E -335.637243345622
  O      -3.605867      0.523859      0.000383
  O      -1.740945      0.914073     -0.003267
  C      -2.783305      1.008288      0.001868
  H      -2.915143      1.971264      0.000438
  Ag      0.090967      1.268869      0.000578
5
Coordinates from ORCA-job HCOO-Ag+.QMRegion E -335.567223804529
  O      -3.545893      0.481297      0.000738
  O      -1.741077      1.035843     -0.001153
  C      -2.782164      1.035973     -0.000290
  H      -2.918091      1.938469      0.000778
  Ag      0.032933      1.194771     -0.000072
5
Coordinates from ORCA-job HCOO-Ag+.QMRegion E -335.459521276541
  O      -3.515291      0.441602      0.000602
  O      -1.789726      1.117804      0.000262
  C      -2.750337      1.012988     -0.000939
  H      -2.876721      1.955330      0.000675
  Ag     -0.022217      1.158629     -0.000600
5
Coordinates from ORCA-job HCOO-Ag+.QMRegion E -335.416791113247
  O      -3.468947      0.402209      0.003430
  O      -1.813269      1.154879     -0.002952
  C      -2.733474      1.008278     -0.004374
  H      -2.932435      2.012795      0.002502
  Ag     -0.006167      1.108193      0.001394
5
Coordinates from ORCA-job HCOO-Ag+.QMRegion E -335.454635522933
  O      -3.387846      0.359754      0.003935
  O      -1.821730      1.238005     -0.002918
  C      -2.729073      1.066332     -0.004530
  H      -3.086877      2.025187      0.002027
  Ag      0.071233      0.997075      0.001486
5
Coordinates from ORCA-job HCOO-Ag+.QMRegion E -335.556961429203
  O      -3.314063      0.357029      0.004165
  O      -1.791983      1.316084     -0.002437
  C      -2.735768      1.141450     -0.004246
  H      -3.231048      1.974466      0.001231
  Ag      0.118570      0.897324      0.001287
5
Coordinates from ORCA-job HCOO-Ag+.QMRegion E -335.620114823141
  O      -3.292462      0.373015      0.004269
  O      -1.761264      1.352072     -0.002525
  C      -2.760855      1.206050     -0.003861
  H      -3.274011      1.897796      0.000820
  Ag      0.134299      0.857420      0.001297
5
Coordinates from ORCA-job HCOO-Ag+.QMRegion E -335.565579927413
  O      -3.300122      0.399571      0.003246
  O      -1.735366      1.332530     -0.000997
  C      -2.787899      1.247156     -0.001124
  H      -3.245896      1.836384     -0.001327
  Ag      0.114991      0.870711      0.000203
5
Coordinates from ORCA-job HCOO-Ag+.QMRegion E -335.553314936031
  O      -3.333037      0.421713      0.001024
  O      -1.721191      1.285271      0.004683
  C      -2.774256      1.223526      0.004860
  H      -3.213599      1.842945     -0.007310
  Ag      0.087791      0.912899     -0.003256
5
Coordinates from ORCA-job HCOO-Ag+.QMRegion E -335.468954520841
  O      -3.430733      0.476153      0.002523
  O      -1.734097      1.180789      0.002481
  C      -2.753376      1.156993      0.003810
  H      -3.081830      1.848912     -0.006478
  Ag      0.045745      1.023505     -0.002336
5
Coordinates from ORCA-job HCOO-Ag+.QMRegion E -335.357310800734
  O      -3.497831      0.519671      0.003319
  O      -1.772092      1.105194      0.001721
  C      -2.729282      1.088191      0.003699
  H      -2.946305      1.858103     -0.006533
  Ag     -0.008781      1.115194     -0.002206
5
Coordinates from ORCA-job HCOO-Ag+.QMRegion E -335.317214348866
  O      -3.523891      0.533607      0.004429
  O      -1.792933      1.062440      0.001261
  C      -2.703395      1.035520      0.002606
  H      -2.924845      1.905451     -0.006506
  Ag     -0.009229      1.149335     -0.001789
5
Coordinates from ORCA-job HCOO-Ag+.QMRegion E -335.256301280793
  O      -3.496039      0.503996      0.004868
  O      -1.816100      1.066684      0.001322
  C      -2.685856      1.027855      0.002202
  H      -3.003564      1.971922     -0.006889
  Ag      0.047267      1.115895     -0.001503
5
Coordinates from ORCA-job HCOO-Ag+.QMRegion E -335.242334894521
  O      -3.465817      0.470785      0.006719
  O      -1.830771      1.070437     -0.000718
  C      -2.688075      1.042068      0.000399
  H      -3.086829      2.024593     -0.006372
  Ag      0.117199      1.078469     -0.000029
5
Coordinates from ORCA-job HCOO-Ag+.QMRegion E -335.398916683655
  O      -3.459206      0.431319      0.005287
  O      -1.821871      1.140223      0.001339
  C      -2.705985      1.087247      0.001832
  H      -3.136957      2.002618     -0.007384
  Ag      0.169726      1.024946     -0.001074
5
Coordinates from ORCA-job HCOO-Ag+.QMRegion E -335.558131563386
  O      -3.433616      0.406718      0.007646
  O      -1.798227      1.194131     -0.003229
  C      -2.736533      1.131905     -0.000912
  H      -3.197050      1.980423     -0.004989
  Ag      0.211133      0.973176      0.001485
